# generated using pymatgen
data_Ca2PI
_symmetry_space_group_name_H-M   'P 1'
_cell_length_a   4.31120230
_cell_length_b   4.31120230
_cell_length_c   22.26635317
_cell_angle_alpha   90.00000000
_cell_angle_beta   90.00000000
_cell_angle_gamma   120.00000000
_symmetry_Int_Tables_number   1
_chemical_formula_structural   Ca2PI
_chemical_formula_sum   'Ca6 P3 I3'
_cell_volume   358.40703758
_cell_formula_units_Z   3
loop_
 _symmetry_equiv_pos_site_id
 _symmetry_equiv_pos_as_xyz
  1  'x, y, z'
loop_
 _atom_type_symbol
 _atom_type_oxidation_number
  Ca2+  2.0
  P3-  -3.0
  I-  -1.0
loop_
 _atom_site_type_symbol
 _atom_site_label
 _atom_site_symmetry_multiplicity
 _atom_site_fract_x
 _atom_site_fract_y
 _atom_site_fract_z
 _atom_site_occupancy
  Ca2+  Ca0  1  0.66666667  0.33333333  0.10345180  1
  Ca2+  Ca1  1  0.00000000  0.00000000  0.22988153  1
  Ca2+  Ca2  1  0.33333333  0.66666667  0.43678514  1
  Ca2+  Ca3  1  0.66666667  0.33333333  0.56321486  1
  Ca2+  Ca4  1  0.00000000  0.00000000  0.77011847  1
  Ca2+  Ca5  1  0.33333333  0.66666667  0.89654820  1
  P3-  P6  1  0.33333333  0.66666667  0.16666667  1
  P3-  P7  1  1.00000000  1.00000000  0.50000000  1
  P3-  P8  1  0.66666667  0.33333333  0.83333333  1
  I-  I9  1  0.00000000  0.00000000  0.00000000  1
  I-  I10  1  0.66666667  0.33333333  0.33333333  1
  I-  I11  1  0.33333333  0.66666667  0.66666667  1
